Circuit: * Z:\home\eric\git\eclectronics-project-1\kicad\Draft2.asc

Direct Newton iteration failed to find .op point.  (Use ".option noopiter" to skip.)
Starting Gmin stepping
Gmin = 10
Gmin = 1.07374
Gmin = 0.115292
Gmin = 0.0123794
Gmin = 0.00132923
vernier = 0.5
Gmin = 0.000339899
vernier = 0.25
vernier = 0.333333
vernier = 0.166667
Gmin = 0.000260255
vernier = 0.222222
vernier = 0.111111
Gmin = 0.000200779
vernier = 0.148148
vernier = 0.197531
Gmin = 0.000133112
vernier = 0.263374
vernier = 0.351165
Gmin = 6.96781e-005
vernier = 0.46822
Gmin = 2.56134e-005
vernier = 0.624294
vernier = 0.832392
Gmin = 5.03669e-006
vernier = 1
Gmin = 5.78977e-007
Gmin = 6.21671e-008
Gmin = 6.67515e-009
Gmin = 7.16738e-010
Gmin = 7.69592e-011
Gmin = 8.26343e-012
Gmin = 8.87279e-013
Gmin = 0
Gmin = 0
Gmin stepping succeeded in finding the operating point.

.step run=1
Changing Tseed to 1e-008
Changing Tseed to 1e-010
.step run=2
.step run=3
.step run=4
.step run=5
.step run=6
.step run=7
.step run=8
.step run=9
.step run=10
.step run=11
.step run=12
.step run=13
.step run=14
.step run=15
.step run=16
.step run=17
.step run=18
.step run=19
.step run=20
.step run=21
.step run=22
.step run=23
.step run=24
.step run=25
.step run=26
.step run=27
.step run=28
.step run=29
.step run=30
.step run=31
.step run=32
.step run=33
.step run=34
.step run=35
.step run=36
.step run=37
.step run=38
.step run=39
.step run=40
.step run=41
.step run=42
.step run=43
.step run=44
.step run=45
.step run=46
.step run=47
.step run=48
.step run=49
.step run=50
.step run=51
.step run=52
.step run=53
.step run=54
.step run=55
.step run=56
.step run=57
.step run=58
.step run=59
.step run=60
.step run=61
.step run=62
.step run=63
.step run=64
.step run=65
.step run=66
.step run=67
.step run=68
.step run=69
.step run=70
.step run=71
.step run=72
.step run=73
.step run=74
.step run=75
.step run=76
.step run=77
.step run=78
.step run=79
.step run=80
.step run=81
.step run=82
.step run=83
.step run=84
.step run=85
.step run=86
.step run=87
.step run=88
.step run=89
.step run=90
.step run=91
.step run=92
.step run=93
.step run=94
.step run=95
.step run=96
.step run=97
.step run=98
.step run=99
.step run=100


Measurement: period
  step	period	FROM	TO
     1	0.8967	0.927408	1.82411
     2	0.965853	0.9985	1.96435
     3	1.04009	1.07387	2.11396
     4	0.924661	0.958862	1.88352
     5	0.90261	0.934451	1.83706
     6	0.928261	0.958884	1.88714
     7	1.07074	1.10537	2.17612
     8	1.10035	1.13475	2.23511
     9	1.07828	1.11871	2.19699
    10	1.03034	1.06516	2.0955
    11	0.970775	1.00527	1.97604
    12	0.958562	0.993344	1.95191
    13	0.996851	1.03301	2.02986
    14	1.05392	1.09216	2.14608
    15	1.01401	1.04797	2.06198
    16	1.00494	1.03712	2.04206
    17	0.990179	1.02683	2.01701
    18	0.934226	0.964212	1.89844
    19	1.0937	1.13061	2.2243
    20	0.932618	0.966788	1.89941
    21	1.04739	1.08358	2.13096
    22	1.05094	1.08589	2.13683
    23	1.01952	1.0523	2.07182
    24	1.01725	1.05185	2.0691
    25	1.00132	1.03734	2.03866
    26	0.945279	0.97689	1.92217
    27	0.916283	0.94443	1.86071
    28	1.08352	1.11946	2.20298
    29	0.913113	0.94414	1.85725
    30	0.931484	0.963621	1.8951
    31	0.957074	0.989435	1.94651
    32	0.939745	0.972654	1.9124
    33	1.05804	1.09214	2.15018
    34	1.04346	1.07946	2.12292
    35	1.02098	1.05927	2.08025
    36	0.927774	0.96116	1.88893
    37	0.926931	0.957169	1.8841
    38	1.06966	1.10777	2.17742
    39	1.02914	1.06374	2.09288
    40	1.07309	1.10914	2.18222
    41	0.929078	0.961101	1.89018
    42	1.02555	1.05968	2.08523
    43	1.054	1.09047	2.14447
    44	1.02449	1.05903	2.08352
    45	1.03127	1.064	2.09527
    46	0.917406	0.948563	1.86597
    47	0.911113	0.945572	1.85668
    48	0.973844	1.00824	1.98209
    49	1.05013	1.0894	2.13952
    50	0.972667	1.00189	1.97455
    51	1.02031	1.05312	2.07343
    52	0.930236	0.961079	1.89132
    53	1.03195	1.06908	2.10102
    54	1.00461	1.04024	2.04486
    55	0.905429	0.935042	1.84047
    56	1.04592	1.08247	2.12839
    57	1.08418	1.11952	2.2037
    58	1.08111	1.11597	2.19708
    59	0.93447	0.965927	1.9004
    60	0.895745	0.928973	1.82472
    61	0.934066	0.964731	1.8988
    62	1.06829	1.10373	2.17202
    63	0.926262	0.956612	1.88287
    64	0.917271	0.948753	1.86602
    65	0.963206	0.997831	1.96104
    66	1.07577	1.11546	2.19123
    67	0.951141	0.980809	1.93195
    68	0.902247	0.935069	1.83732
    69	1.08927	1.12617	2.21544
    70	0.898695	0.93241	1.83111
    71	1.09162	1.1284	2.22003
    72	0.94104	0.977073	1.91811
    73	1.00941	1.04711	2.05652
    74	0.90315	0.933106	1.83626
    75	0.934047	0.965448	1.8995
    76	1.07224	1.11276	2.185
    77	1.00715	1.04057	2.04773
    78	0.899868	0.929919	1.82979
    79	1.10107	1.13971	2.24078
    80	0.952919	0.983869	1.93679
    81	0.964752	0.997516	1.96227
    82	0.915017	0.945717	1.86073
    83	0.928317	0.960096	1.88841
    84	0.960449	0.989399	1.94985
    85	0.922933	0.956205	1.87914
    86	1.04334	1.07913	2.12247
    87	0.941407	0.973062	1.91447
    88	1.01329	1.04701	2.0603
    89	1.0577	1.09427	2.15197
    90	0.941307	0.975453	1.91676
    91	0.986393	1.02016	2.00656
    92	1.07814	1.11437	2.19251
    93	1.00379	1.03948	2.04327
    94	0.956138	0.990861	1.947
    95	0.981944	1.01651	1.99845
    96	0.975987	1.00954	1.98553
    97	0.932166	0.966841	1.89901
    98	0.925755	0.955088	1.88084
    99	1.02851	1.06371	2.09223
   100	0.954021	0.9848	1.93882

Measurement: frequency
  step	1/period
     1	1.1152
     2	1.03535
     3	0.961456
     4	1.08148
     5	1.1079
     6	1.07728
     7	0.93393
     8	0.908799
     9	0.927402
    10	0.970555
    11	1.0301
    12	1.04323
    13	1.00316
    14	0.948839
    15	0.986188
    16	0.995083
    17	1.00992
    18	1.0704
    19	0.914331
    20	1.07225
    21	0.954758
    22	0.951533
    23	0.980853
    24	0.983041
    25	0.998685
    26	1.05789
    27	1.09137
    28	0.922916
    29	1.09515
    30	1.07356
    31	1.04485
    32	1.06412
    33	0.945147
    34	0.958354
    35	0.979452
    36	1.07785
    37	1.07883
    38	0.934878
    39	0.971686
    40	0.931892
    41	1.07634
    42	0.975091
    43	0.948765
    44	0.976094
    45	0.969678
    46	1.09003
    47	1.09756
    48	1.02686
    49	0.952264
    50	1.0281
    51	0.980093
    52	1.075
    53	0.969044
    54	0.995406
    55	1.10445
    56	0.956098
    57	0.922358
    58	0.924978
    59	1.07013
    60	1.11639
    61	1.07059
    62	0.936073
    63	1.07961
    64	1.09019
    65	1.0382
    66	0.929563
    67	1.05137
    68	1.10834
    69	0.918048
    70	1.11272
    71	0.916067
    72	1.06265
    73	0.990677
    74	1.10724
    75	1.07061
    76	0.932624
    77	0.992897
    78	1.11127
    79	0.908204
    80	1.04941
    81	1.03654
    82	1.09288
    83	1.07722
    84	1.04118
    85	1.0835
    86	0.958464
    87	1.06224
    88	0.986887
    89	0.945444
    90	1.06235
    91	1.01379
    92	0.927527
    93	0.996225
    94	1.04587
    95	1.01839
    96	1.0246
    97	1.07277
    98	1.0802
    99	0.972277
   100	1.0482

Measurement: cap
  step	capval
     1	9.0025e-006
     2	9.70058e-006
     3	1.0421e-005
     4	9.29463e-006
     5	9.01782e-006
     6	9.33247e-006
     7	1.05666e-005
     8	1.09118e-005
     9	1.07245e-005
    10	1.0223e-005
    11	9.75173e-006
    12	9.55177e-006
    13	9.96988e-006
    14	1.04889e-005
    15	1.01448e-005
    16	1.00342e-005
    17	9.98379e-006
    18	9.28315e-006
    19	1.09332e-005
    20	9.3827e-006
    21	1.0464e-005
    22	1.04438e-005
    23	1.0034e-005
    24	1.00991e-005
    25	9.9122e-006
    26	9.39198e-006
    27	9.05493e-006
    28	1.06861e-005
    29	9.21986e-006
    30	9.28053e-006
    31	9.50545e-006
    32	9.42116e-006
    33	1.05044e-005
    34	1.03924e-005
    35	1.02574e-005
    36	9.37989e-006
    37	9.19501e-006
    38	1.07892e-005
    39	1.02561e-005
    40	1.07096e-005
    41	9.36854e-006
    42	1.02094e-005
    43	1.04815e-005
    44	1.01521e-005
    45	1.03356e-005
    46	9.21711e-006
    47	9.1587e-006
    48	9.81796e-006
    49	1.0476e-005
    50	9.60012e-006
    51	1.02193e-005
    52	9.2096e-006
    53	1.03256e-005
    54	1.00185e-005
    55	9.01178e-006
    56	1.04947e-005
    57	1.09114e-005
    58	1.09034e-005
    59	9.26325e-006
    60	9.02936e-006
    61	9.33784e-006
    62	1.06048e-005
    63	9.28962e-006
    64	9.13233e-006
    65	9.6227e-006
    66	1.07905e-005
    67	9.45698e-006
    68	9.10761e-006
    69	1.07831e-005
    70	9.09418e-006
    71	1.08923e-005
    72	9.51833e-006
    73	1.01711e-005
    74	9.01434e-006
    75	9.44465e-006
    76	1.07102e-005
    77	1.00603e-005
    78	9.06214e-006
    79	1.08958e-005
    80	9.58449e-006
    81	9.48109e-006
    82	9.16022e-006
    83	9.42128e-006
    84	9.62227e-006
    85	9.30702e-006
    86	1.02911e-005
    87	9.30152e-006
    88	1.01571e-005
    89	1.05905e-005
    90	9.39534e-006
    91	9.8826e-006
    92	1.08989e-005
    93	1.01489e-005
    94	9.5204e-006
    95	9.78713e-006
    96	9.70711e-006
    97	9.40034e-006
    98	9.21876e-006
    99	1.03753e-005
   100	9.61446e-006


Date: Wed Sep 13 11:56:42 2017
Total elapsed time: 2.409 seconds.

tnom = 27
temp = 27
method = modified trap
totiter = 6544
traniter = 5925
tranpoints = 2146
accept = 1822
rejected = 322
matrix size = 6
fillins = 1
solver = Normal
Matrix Compiler1: 298 bytes object code size  0.2/0.2/[0.2]
Matrix Compiler2:      41 opcodes  0.2/[0.2]/0.2

