Circuit: * /home/eric/git/eclectronics-project-1/kicad/kicad.cir

