Circuit: * Z:\home\eric\git\eclectronics-project-1\LTspice\Draft2.asc

Direct Newton iteration failed to find .op point.  (Use ".option noopiter" to skip.)
Starting Gmin stepping
Gmin = 10
Gmin = 1.07374
Gmin = 0.115292
Gmin = 0.0123794
Gmin = 0.00132923
Gmin = 0.000142725
Gmin = 1.5325e-005
Gmin = 1.6455e-006
Gmin = 1.76685e-007
Gmin = 1.89714e-008
Gmin = 2.03704e-009
Gmin = 2.18725e-010
Gmin = 2.34854e-011
Gmin = 2.52173e-012
Gmin = 2.70769e-013
Gmin = 0
Gmin stepping succeeded in finding the operating point.

.step run=1
Changing Tseed to 1e-008
Changing Tseed to 1e-010
.step run=2
.step run=3
.step run=4
.step run=5
.step run=6
.step run=7
.step run=8
.step run=9
.step run=10
.step run=11
.step run=12
.step run=13
.step run=14
.step run=15
.step run=16
.step run=17
.step run=18
.step run=19
.step run=20
.step run=21
.step run=22
.step run=23
.step run=24
.step run=25
.step run=26
.step run=27
.step run=28
.step run=29
.step run=30
.step run=31
.step run=32
.step run=33
.step run=34
.step run=35
.step run=36
.step run=37
.step run=38
.step run=39
.step run=40
.step run=41
.step run=42
.step run=43
.step run=44
.step run=45
.step run=46
.step run=47
.step run=48
.step run=49
.step run=50
.step run=51
.step run=52
.step run=53
.step run=54
.step run=55
.step run=56
.step run=57
.step run=58
.step run=59
.step run=60
.step run=61
.step run=62
.step run=63
.step run=64
.step run=65
.step run=66
.step run=67
.step run=68
.step run=69
.step run=70
.step run=71
.step run=72
.step run=73
.step run=74
.step run=75
.step run=76
.step run=77
.step run=78
.step run=79
.step run=80
.step run=81
.step run=82
.step run=83
.step run=84
.step run=85
.step run=86
.step run=87
.step run=88
.step run=89
.step run=90
.step run=91
.step run=92
.step run=93
.step run=94
.step run=95
.step run=96
.step run=97
.step run=98
.step run=99
.step run=100
.step run=101
.step run=102
.step run=103
.step run=104
.step run=105
.step run=106
.step run=107
.step run=108
.step run=109
.step run=110
.step run=111
.step run=112
.step run=113
.step run=114
.step run=115
.step run=116
.step run=117
.step run=118
.step run=119
.step run=120
.step run=121
.step run=122
.step run=123
.step run=124
.step run=125
.step run=126
.step run=127
.step run=128
.step run=129
.step run=130
.step run=131
.step run=132
.step run=133
.step run=134
.step run=135
.step run=136
.step run=137
.step run=138
.step run=139
.step run=140
.step run=141
.step run=142
.step run=143
.step run=144
.step run=145
.step run=146
.step run=147
.step run=148
.step run=149
.step run=150
.step run=151
.step run=152
.step run=153
.step run=154
.step run=155
.step run=156
.step run=157
.step run=158
.step run=159
.step run=160
.step run=161
.step run=162
.step run=163
.step run=164
.step run=165
.step run=166
.step run=167
.step run=168
.step run=169
.step run=170
.step run=171
.step run=172
.step run=173
.step run=174
.step run=175
.step run=176
.step run=177
.step run=178
.step run=179
.step run=180
.step run=181
.step run=182
.step run=183
.step run=184
.step run=185
.step run=186
.step run=187
.step run=188
.step run=189
.step run=190
.step run=191
.step run=192
.step run=193
.step run=194
.step run=195
.step run=196
.step run=197
.step run=198
.step run=199
.step run=200
.step run=201
.step run=202
.step run=203
.step run=204
.step run=205
.step run=206
.step run=207
.step run=208
.step run=209
.step run=210
.step run=211
.step run=212
.step run=213
.step run=214
.step run=215
.step run=216
.step run=217
.step run=218
.step run=219
.step run=220
.step run=221
.step run=222
.step run=223
.step run=224
.step run=225
.step run=226
.step run=227
.step run=228
.step run=229
.step run=230
.step run=231
.step run=232
.step run=233
.step run=234
.step run=235
.step run=236
.step run=237
.step run=238
.step run=239
.step run=240
.step run=241
.step run=242
.step run=243
.step run=244
.step run=245
.step run=246
.step run=247
.step run=248
.step run=249
.step run=250
.step run=251
.step run=252
.step run=253
.step run=254
.step run=255
.step run=256
.step run=257
.step run=258
.step run=259
.step run=260
.step run=261
.step run=262
.step run=263
.step run=264
.step run=265
.step run=266
.step run=267
.step run=268
.step run=269
.step run=270
.step run=271
.step run=272
.step run=273
.step run=274
.step run=275
.step run=276
.step run=277
.step run=278
.step run=279
.step run=280
.step run=281
.step run=282
.step run=283
.step run=284
.step run=285
.step run=286
.step run=287
.step run=288
.step run=289
.step run=290
.step run=291
.step run=292
.step run=293
.step run=294
.step run=295
.step run=296
.step run=297
.step run=298
.step run=299
.step run=300
.step run=301
.step run=302
.step run=303
.step run=304
.step run=305
.step run=306
.step run=307
.step run=308
.step run=309
.step run=310
.step run=311
.step run=312
.step run=313
.step run=314
.step run=315
.step run=316
.step run=317
.step run=318
.step run=319
.step run=320
.step run=321
.step run=322
.step run=323
.step run=324
.step run=325
.step run=326
.step run=327
.step run=328
.step run=329
.step run=330
.step run=331
.step run=332
.step run=333
.step run=334
.step run=335
.step run=336
.step run=337
.step run=338
.step run=339
.step run=340
.step run=341
.step run=342
.step run=343
.step run=344
.step run=345
.step run=346
.step run=347
.step run=348
.step run=349
.step run=350
.step run=351
.step run=352
.step run=353
.step run=354
.step run=355
.step run=356
.step run=357
.step run=358
.step run=359
.step run=360
.step run=361
.step run=362
.step run=363
.step run=364
.step run=365
.step run=366
.step run=367
.step run=368
.step run=369
.step run=370
.step run=371
.step run=372
.step run=373
.step run=374
.step run=375
.step run=376
.step run=377
.step run=378
.step run=379
.step run=380
.step run=381
.step run=382
.step run=383
.step run=384
.step run=385
.step run=386
.step run=387
.step run=388
.step run=389
.step run=390
.step run=391
.step run=392
.step run=393
.step run=394
.step run=395
.step run=396
.step run=397
.step run=398
.step run=399
.step run=400
.step run=401
.step run=402
.step run=403
.step run=404
.step run=405
.step run=406
.step run=407
.step run=408
.step run=409
.step run=410
.step run=411
.step run=412
.step run=413
.step run=414
.step run=415
.step run=416
.step run=417
.step run=418
.step run=419
.step run=420
.step run=421
.step run=422
.step run=423
.step run=424
.step run=425
.step run=426
.step run=427
.step run=428
.step run=429
.step run=430
.step run=431
.step run=432
.step run=433
.step run=434
.step run=435
.step run=436
.step run=437
.step run=438
.step run=439
.step run=440
.step run=441
.step run=442
.step run=443
.step run=444
.step run=445
.step run=446
.step run=447
.step run=448
.step run=449
.step run=450
.step run=451
.step run=452
.step run=453
.step run=454
.step run=455
.step run=456
.step run=457
.step run=458
.step run=459
.step run=460
.step run=461
.step run=462
.step run=463
.step run=464
.step run=465
.step run=466
.step run=467
.step run=468
.step run=469
.step run=470
.step run=471
.step run=472
.step run=473
.step run=474
.step run=475
.step run=476
.step run=477
.step run=478
.step run=479
.step run=480
.step run=481
.step run=482
.step run=483
.step run=484
.step run=485
.step run=486
.step run=487
.step run=488
.step run=489
.step run=490
.step run=491
.step run=492
.step run=493
.step run=494
.step run=495
.step run=496
.step run=497
.step run=498
.step run=499
.step run=500


Measurement: period
  step	period	FROM	TO
     1	0.896349	1.8505	2.74685
     2	0.9657	1.99303	2.95873
     3	1.04012	2.14482	3.18493
     4	0.924609	1.91004	2.83465
     5	0.902427	1.86402	2.76645
     6	0.928183	1.91463	2.84281
     7	1.07077	2.20788	3.27865
     8	1.10044	2.26758	3.36802
     9	1.07796	2.22951	3.30747
    10	1.03016	2.12617	3.15634
    11	0.970791	2.00552	2.97631
    12	0.957262	1.97643	2.93369
    13	0.996674	2.05993	3.0566
    14	1.05378	2.17514	3.22893
    15	1.0139	2.09196	3.10586
    16	1.00501	2.07182	3.07683
    17	0.989954	2.04692	3.03687
    18	0.934209	1.92566	2.85987
    19	1.09324	2.25625	3.3495
    20	0.932526	1.92771	2.86023
    21	1.04708	2.16203	3.20911
    22	1.05069	2.16775	3.21844
    23	1.01952	2.10206	3.12158
    24	1.01786	2.10181	3.11967
    25	1.00133	2.06744	3.06877
    26	0.945271	1.95038	2.89565
    27	0.916404	1.88776	2.80416
    28	1.08355	2.23535	3.31889
    29	0.912762	1.88381	2.79657
    30	0.930949	1.92275	2.8537
    31	0.956923	1.97488	2.9318
    32	0.93975	1.94076	2.88051
    33	1.05807	2.18162	3.23969
    34	1.04334	2.1541	3.19745
    35	1.02054	2.11081	3.13135
    36	0.927283	1.91622	2.84351
    37	0.926704	1.91124	2.83795
    38	1.06923	2.2091	3.27832
    39	1.02902	2.12335	3.15237
    40	1.07288	2.21399	3.28687
    41	0.928835	1.91766	2.8465
    42	1.02403	2.11586	3.1399
    43	1.05379	2.17276	3.22655
    44	1.02443	2.11416	3.13859
    45	1.03109	2.1254	3.15648
    46	0.917326	1.89326	2.81059
    47	0.906819	1.88428	2.7911
    48	0.973639	2.01114	2.98478
    49	1.04898	2.17115	3.22012
    50	0.972633	2.00288	2.97551
    51	1.01991	2.10295	3.12286
    52	0.930004	1.9188	2.8488
    53	1.03176	2.13205	3.16381
    54	1.00446	2.06786	3.07232
    55	0.902468	1.86464	2.76711
    56	1.04557	2.15935	3.20492
    57	1.08398	2.23405	3.31802
    58	1.08088	2.2287	3.30958
    59	0.934419	1.92823	2.86265
    60	0.895546	1.85179	2.74733
    61	0.933114	1.92448	2.8576
    62	1.0681	2.20353	3.27163
    63	0.926203	1.90966	2.83586
    64	0.91722	1.89346	2.81068
    65	0.963227	1.99014	2.95337
    66	1.07891	2.22655	3.30547
    67	0.951063	1.95977	2.91084
    68	0.902089	1.86456	2.76665
    69	1.08911	2.24775	3.33686
    70	0.898337	1.85798	2.75632
    71	1.09133	2.25221	3.34354
    72	0.940582	1.94555	2.88613
    73	1.00906	2.08689	3.09595
    74	0.902961	1.86286	2.76582
    75	0.933796	1.92695	2.86074
    76	1.072	2.21751	3.28951
    77	1.00684	2.07718	3.08402
    78	0.899727	1.8564	2.75613
    79	1.10082	2.27368	3.3745
    80	0.9527	1.96467	2.91737
    81	0.964863	1.99136	2.95623
    82	0.91461	1.88737	2.80198
    83	0.927938	1.91562	2.84356
    84	0.960346	1.97768	2.93803
    85	0.922872	1.90693	2.82981
    86	1.04331	2.15375	3.19706
    87	0.941323	1.94248	2.8838
    88	1.01305	2.09014	3.10318
    89	1.05731	2.18319	3.2405
    90	0.941121	1.94516	2.88628
    91	0.98602	2.03568	3.0217
    92	1.07476	2.22407	3.29883
    93	1.00354	2.07327	3.0768
    94	0.955977	1.97582	2.9318
    95	0.981955	2.02813	3.01008
    96	0.97581	2.0145	2.99031
    97	0.931895	1.92705	2.85894
    98	0.925582	1.9053	2.83088
    99	1.02828	2.12276	3.15104
   100	0.953836	1.96669	2.92053
   101	1.04614	2.16251	3.20865
   102	0.910091	1.87896	2.78905
   103	1.04197	2.15213	3.1941
   104	0.912728	1.87334	2.78606
   105	0.947373	1.95425	2.90163
   106	1.03213	2.12831	3.16044
   107	1.03188	2.1261	3.15798
   108	0.951572	1.9654	2.91697
   109	0.901067	1.86273	2.7638
   110	1.02865	2.12303	3.15168
   111	1.05954	2.185	3.24454
   112	1.03026	2.12576	3.15601
   113	1.06745	2.20402	3.27147
   114	1.07654	2.22633	3.30287
   115	0.944957	1.95075	2.89571
   116	1.02316	2.1136	3.13676
   117	1.04861	2.16748	3.21609
   118	1.06381	2.20136	3.26517
   119	0.953532	1.96665	2.92018
   120	0.934489	1.93181	2.8663
   121	0.967458	1.99542	2.96288
   122	1.07699	2.22465	3.30164
   123	0.902764	1.86436	2.76713
   124	0.92534	1.90996	2.8353
   125	1	2.06253	3.06253
   126	1.07307	2.21453	3.2876
   127	1.07167	2.21094	3.2826
   128	1.07167	2.21717	3.28884
   129	0.978382	2.02291	3.0013
   130	0.90191	1.86024	2.76215
   131	1.033	2.12844	3.16144
   132	0.921966	1.89944	2.82141
   133	0.985933	2.03579	3.02172
   134	0.90375	1.86353	2.76728
   135	0.982225	2.03005	3.01227
   136	1.01171	2.09183	3.10354
   137	1.04909	2.15759	3.20668
   138	1.04123	2.1503	3.19153
   139	0.946782	1.95588	2.90266
   140	1.03324	2.13523	3.16847
   141	1.02385	2.1129	3.13675
   142	0.996255	2.05427	3.05053
   143	1.06122	2.18478	3.246
   144	1.0284	2.121	3.14939
   145	1.00884	2.08532	3.09416
   146	1.03789	2.14199	3.17988
   147	0.99328	2.05106	3.04434
   148	0.979489	2.02611	3.0056
   149	1.03823	2.14481	3.18305
   150	0.967683	1.99637	2.96405
   151	1.08337	2.23321	3.31658
   152	0.920301	1.90102	2.82132
   153	1.01679	2.10013	3.11692
   154	1.05462	2.18042	3.23504
   155	0.989832	2.04451	3.03434
   156	0.968068	1.99762	2.96569
   157	1.0509	2.16552	3.21641
   158	0.999593	2.06337	3.06297
   159	1.09794	2.26324	3.36118
   160	1.04963	2.16615	3.21579
   161	1.00752	2.08398	3.0915
   162	1.05081	2.17155	3.22235
   163	0.963998	1.98968	2.95368
   164	1.05731	2.18196	3.23927
   165	0.983488	2.02794	3.01142
   166	0.960347	1.98214	2.94248
   167	0.938193	1.93342	2.87161
   168	1.05958	2.19523	3.25481
   169	0.952439	1.96643	2.91887
   170	0.905212	1.86941	2.77463
   171	1.07457	2.21934	3.29391
   172	1.09379	2.25729	3.35108
   173	0.959027	1.9776	2.93662
   174	1.02103	2.10768	3.12871
   175	0.962298	1.99322	2.95551
   176	0.978949	2.02306	3.00201
   177	0.989008	2.04551	3.03451
   178	1.05556	2.18236	3.23793
   179	1.00565	2.07469	3.08034
   180	0.967378	1.99692	2.96429
   181	0.952554	1.96492	2.91747
   182	1.07565	2.22077	3.29642
   183	0.98502	2.0361	3.02112
   184	1.04514	2.15887	3.204
   185	1.0526	2.17056	3.22316
   186	1.05821	2.18665	3.24486
   187	1.01726	2.10542	3.12268
   188	0.951001	1.9621	2.9131
   189	0.997429	2.06061	3.05804
   190	0.981822	2.02569	3.00751
   191	0.978936	2.0182	2.99713
   192	1.07949	2.22885	3.30834
   193	1.02077	2.10911	3.12988
   194	1.09977	2.26819	3.36796
   195	1.00841	2.08469	3.0931
   196	1.02093	2.10915	3.13008
   197	0.96271	1.98631	2.94902
   198	1.05793	2.1842	3.24213
   199	0.948588	1.9597	2.90829
   200	0.904552	1.87898	2.78353
   201	0.989287	2.03925	3.02854
   202	1.09573	2.26355	3.35928
   203	1.08989	2.24765	3.33753
   204	0.923289	1.9034	2.82669
   205	0.992803	2.04471	3.03751
   206	1.07255	2.21201	3.28456
   207	1.06536	2.1992	3.26456
   208	0.973243	2.00451	2.97776
   209	1.0397	2.14781	3.18752
   210	0.932935	1.92131	2.85425
   211	0.952196	1.96512	2.91731
   212	1.09422	2.25348	3.3477
   213	1.07149	2.21723	3.28872
   214	1.03573	2.13891	3.17464
   215	1.02148	2.10815	3.12962
   216	0.975252	2.01566	2.99091
   217	1.10803	2.28826	3.3963
   218	0.963209	1.99341	2.95662
   219	0.961895	1.98945	2.95134
   220	1.04952	2.16719	3.21671
   221	0.978867	2.02184	3.00071
   222	1.00848	2.08251	3.09099
   223	1.0598	2.1843	3.2441
   224	0.979673	2.02195	3.00163
   225	1.10202	2.2736	3.37562
   226	1.0628	2.19362	3.25642
   227	0.938042	1.93772	2.87576
   228	0.918006	1.89473	2.81274
   229	1.01618	2.10123	3.11741
   230	0.967073	1.99649	2.96356
   231	1.06464	2.19543	3.26007
   232	0.94219	1.94014	2.88233
   233	0.974025	2.00992	2.98394
   234	0.938818	1.94037	2.87918
   235	1.10916	2.2922	3.40136
   236	0.933799	1.92883	2.86263
   237	0.917506	1.89809	2.8156
   238	0.892542	1.84445	2.73699
   239	1.05093	2.1701	3.22103
   240	1.04968	2.17018	3.21986
   241	0.909891	1.87846	2.78835
   242	0.934265	1.93236	2.86662
   243	0.919398	1.89466	2.81406
   244	1.07946	2.2252	3.30466
   245	1.07191	2.21362	3.28553
   246	0.991611	2.04204	3.03365
   247	1.02745	2.11639	3.14385
   248	0.965487	1.99105	2.95654
   249	0.997705	2.05601	3.05372
   250	1.02892	2.12094	3.14986
   251	0.986209	2.03449	3.0207
   252	0.911578	1.88333	2.79491
   253	1.0128	2.0937	3.1065
   254	0.935968	1.93382	2.86978
   255	1.0658	2.20366	3.26946
   256	0.944439	1.95021	2.89465
   257	1.06872	2.20777	3.27649
   258	0.916364	1.89162	2.80799
   259	0.926278	1.91146	2.83774
   260	0.959022	1.98042	2.93944
   261	0.939278	1.93901	2.87829
   262	0.990034	2.04048	3.03051
   263	0.954734	1.97929	2.93403
   264	1.02416	2.11028	3.13444
   265	1.08716	2.24059	3.32774
   266	0.919218	1.89415	2.81337
   267	0.984676	2.03408	3.01876
   268	1.08117	2.23207	3.31324
   269	1.02882	2.1259	3.15472
   270	1.0689	2.21049	3.27939
   271	0.949858	1.96094	2.91079
   272	1.05234	2.17547	3.22781
   273	1.0799	2.22815	3.30805
   274	1.07742	2.23098	3.3084
   275	1.06863	2.20748	3.27611
   276	1.00649	2.07762	3.08411
   277	1.02451	2.11453	3.13904
   278	0.963461	1.99051	2.95397
   279	0.943673	1.94918	2.89286
   280	0.944783	1.95115	2.89593
   281	0.928725	1.92015	2.84887
   282	0.905692	1.86611	2.7718
   283	1.01476	2.0924	3.10717
   284	0.970764	2.00874	2.97951
   285	1.1064	2.27933	3.38572
   286	0.954309	1.96941	2.92372
   287	1.07291	2.21347	3.28638
   288	0.994584	2.05475	3.04933
   289	1.03096	2.12936	3.16032
   290	1.05589	2.18262	3.23851
   291	0.987737	2.03733	3.02507
   292	1.05774	2.1829	3.24064
   293	0.946254	1.95431	2.90056
   294	1.06121	2.18969	3.2509
   295	1.01869	2.10751	3.1262
   296	0.946878	1.95157	2.89844
   297	1.0944	2.25385	3.34825
   298	0.984124	2.03061	3.01473
   299	0.958556	1.97947	2.93803
   300	0.978719	2.02132	3.00004
   301	0.934723	1.92888	2.8636
   302	1.00339	2.07182	3.07521
   303	1.07811	2.22778	3.30589
   304	1.04805	2.16367	3.21172
   305	1.04694	2.16274	3.20968
   306	1.00214	2.0709	3.07305
   307	0.93045	1.91937	2.84982
   308	1.04318	2.15684	3.20001
   309	0.958286	1.97821	2.93649
   310	0.944793	1.95292	2.89772
   311	1.05501	2.17779	3.23281
   312	0.932746	1.92414	2.85689
   313	0.993449	2.05451	3.04796
   314	1.05002	2.16972	3.21974
   315	1.06772	2.20185	3.26957
   316	0.908675	1.87618	2.78485
   317	1.0369	2.14109	3.17799
   318	0.915197	1.89041	2.80561
   319	1.06665	2.21032	3.27697
   320	1.07993	2.23197	3.3119
   321	0.99214	2.04677	3.03891
   322	1.03277	2.13424	3.16701
   323	1.07923	2.23024	3.30948
   324	1.04941	2.16806	3.21747
   325	1.05403	2.17234	3.22637
   326	0.995172	2.05575	3.05092
   327	0.986817	2.03317	3.01999
   328	0.972717	2.01008	2.9828
   329	0.946339	1.95678	2.90312
   330	0.977608	2.02189	2.9995
   331	1.01685	2.09988	3.11673
   332	1.01632	2.09268	3.109
   333	1.09489	2.25714	3.35203
   334	0.985136	2.03162	3.01675
   335	1.04758	2.16509	3.21267
   336	1.05088	2.17281	3.22368
   337	0.925236	1.90905	2.83428
   338	0.931317	1.91963	2.85094
   339	1.08271	2.23484	3.31755
   340	1.04728	2.16673	3.21401
   341	0.966483	2.00327	2.96976
   342	0.946334	1.95598	2.90231
   343	1.05107	2.17051	3.22158
   344	1.05792	2.18235	3.24027
   345	0.963352	1.98789	2.95124
   346	0.952387	1.96618	2.91856
   347	1.02831	2.12121	3.14952
   348	0.920117	1.90164	2.82176
   349	0.983049	2.02924	3.01229
   350	1.00537	2.07859	3.08397
   351	0.915585	1.89286	2.80845
   352	1.08655	2.2419	3.32845
   353	1.05147	2.17579	3.22726
   354	1.06186	2.18921	3.25107
   355	1.02975	2.12279	3.15254
   356	1.00415	2.07625	3.0804
   357	1.08881	2.24687	3.33568
   358	1.06757	2.20384	3.27142
   359	1.00961	2.08548	3.0951
   360	1.10085	2.2695	3.37035
   361	1.08432	2.23626	3.32058
   362	1.07757	2.22487	3.30244
   363	0.949598	1.96287	2.91246
   364	0.978345	2.0216	2.99994
   365	0.915707	1.88894	2.80465
   366	1.07527	2.22091	3.29618
   367	1.0181	2.10002	3.11812
   368	0.956771	1.97558	2.93235
   369	1.02583	2.11898	3.1448
   370	0.915312	1.89057	2.80588
   371	0.952388	1.96545	2.91784
   372	0.977946	2.02023	2.99818
   373	0.930896	1.9182	2.8491
   374	0.928206	1.91439	2.84259
   375	1.02358	2.11228	3.13586
   376	0.927328	1.91945	2.84678
   377	0.917454	1.89459	2.81205
   378	1.01093	2.08562	3.09655
   379	0.944784	1.94939	2.89417
   380	1.05363	2.17745	3.23108
   381	0.952192	1.96555	2.91774
   382	1.07267	2.21729	3.28996
   383	0.995408	2.05641	3.05182
   384	0.912192	1.88726	2.79945
   385	1.02659	2.12107	3.14766
   386	1.08923	2.25001	3.33924
   387	0.955453	1.9668	2.92225
   388	0.978334	2.01992	2.99825
   389	1.02243	2.11345	3.13589
   390	1.05805	2.18457	3.24262
   391	1.0086	2.08174	3.09034
   392	0.980655	2.02345	3.00411
   393	1.03545	2.13814	3.17358
   394	0.950357	1.95787	2.90822
   395	1.00646	2.0894	3.09585
   396	0.999529	2.06917	3.06869
   397	0.905198	1.86572	2.77092
   398	0.968508	1.99611	2.96462
   399	0.97249	2.01024	2.98273
   400	0.985879	2.03812	3.024
   401	1.01651	2.0994	3.11591
   402	0.951905	1.96537	2.91728
   403	1.00978	2.08646	3.09623
   404	0.897348	1.85363	2.75098
   405	1.0781	2.22473	3.30283
   406	0.930456	1.91958	2.85004
   407	0.902624	1.86227	2.76489
   408	0.910579	1.87897	2.78955
   409	1.01951	2.10669	3.12621
   410	0.960408	1.9805	2.94091
   411	1.10425	2.27792	3.38217
   412	0.960387	1.98109	2.94148
   413	0.934396	1.92604	2.86044
   414	0.910415	1.87921	2.78963
   415	0.967897	1.9995	2.9674
   416	1.04264	2.15759	3.20024
   417	0.989425	2.04338	3.03281
   418	0.952747	1.97766	2.93041
   419	0.931485	1.92569	2.85718
   420	1.07254	2.2139	3.28644
   421	0.947043	1.95132	2.89836
   422	1.09313	2.25815	3.35127
   423	0.982046	2.02767	3.00972
   424	0.994867	2.05115	3.04602
   425	1.03724	2.14499	3.18224
   426	0.914422	1.88112	2.79554
   427	0.960815	1.98331	2.94413
   428	0.958355	1.97969	2.93805
   429	1.02293	2.11354	3.13646
   430	0.902227	1.8625	2.76473
   431	1.06785	2.20859	3.27643
   432	1.01953	2.10737	3.12691
   433	1.07837	2.22661	3.30499
   434	0.911944	1.88206	2.794
   435	1.06247	2.19472	3.25718
   436	0.980375	2.0256	3.00598
   437	0.901506	1.85995	2.76145
   438	1.06835	2.20459	3.27293
   439	0.952373	1.96344	2.91581
   440	0.982474	2.0295	3.01198
   441	0.971166	2.00431	2.97548
   442	0.975277	2.01336	2.98864
   443	1.09007	2.2522	3.34227
   444	1.07307	2.21458	3.28765
   445	0.925493	1.9118	2.83729
   446	0.961505	1.98522	2.94672
   447	1.01977	2.10722	3.12699
   448	1.03623	2.14047	3.1767
   449	0.971444	2.00226	2.9737
   450	0.963423	1.98812	2.95155
   451	1.04667	2.1711	3.21777
   452	1.06836	2.20477	3.27312
   453	1.01135	2.08866	3.10002
   454	0.948332	1.95827	2.9066
   455	1.03316	2.13328	3.16644
   456	1.02995	2.1216	3.15155
   457	0.964004	1.98917	2.95318
   458	1.05646	2.17824	3.2347
   459	1.05114	2.17169	3.22283
   460	0.997568	2.05609	3.05366
   461	0.999064	2.06003	3.05909
   462	0.973096	2.01108	2.98418
   463	0.902544	1.86509	2.76764
   464	1.06588	2.20333	3.26921
   465	1.03303	2.13108	3.1641
   466	0.983331	2.03017	3.01351
   467	0.973589	2.00962	2.98321
   468	0.901838	1.86495	2.76679
   469	1.054	2.17691	3.2309
   470	1.05557	2.17682	3.23239
   471	0.904315	1.8647	2.76902
   472	0.922735	1.9025	2.82524
   473	0.94713	1.9539	2.90103
   474	0.974306	2.01087	2.98517
   475	1.07095	2.21358	3.28453
   476	1.01298	2.09777	3.11075
   477	0.900533	1.85938	2.75992
   478	1.01299	2.09348	3.10647
   479	1.03058	2.12888	3.15946
   480	0.919721	1.90033	2.82006
   481	1.08931	2.24637	3.33569
   482	0.965794	1.99477	2.96056
   483	0.979041	2.02431	3.00335
   484	0.932147	1.92183	2.85398
   485	1.07732	2.22299	3.30031
   486	0.912538	1.88065	2.79319
   487	0.950962	1.96111	2.91207
   488	1.04227	2.15987	3.20214
   489	0.930844	1.92234	2.85318
   490	0.922403	1.90544	2.82784
   491	1.08119	2.2345	3.31569
   492	0.905428	1.87184	2.77726
   493	0.98568	2.03417	3.01985
   494	1.01903	2.1077	3.12673
   495	1.02128	2.1053	3.12658
   496	1.02855	2.12191	3.15046
   497	1.0212	2.11846	3.13966
   498	1.04283	2.15455	3.19738
   499	0.966787	1.99718	2.96397
   500	1.01368	2.09272	3.10641

Measurement: frequency
  step	1/period
     1	1.11564
     2	1.03552
     3	0.961431
     4	1.08154
     5	1.10812
     6	1.07737
     7	0.933909
     8	0.908731
     9	0.92768
    10	0.970719
    11	1.03009
    12	1.04465
    13	1.00334
    14	0.94896
    15	0.986293
    16	0.995013
    17	1.01015
    18	1.07042
    19	0.914708
    20	1.07236
    21	0.955034
    22	0.951752
    23	0.98085
    24	0.982455
    25	0.998671
    26	1.0579
    27	1.09122
    28	0.922895
    29	1.09558
    30	1.07417
    31	1.04502
    32	1.06411
    33	0.945118
    34	0.958456
    35	0.979875
    36	1.07842
    37	1.07909
    38	0.935257
    39	0.971803
    40	0.93207
    41	1.07662
    42	0.97653
    43	0.948956
    44	0.976149
    45	0.969851
    46	1.09012
    47	1.10276
    48	1.02707
    49	0.953309
    50	1.02814
    51	0.980476
    52	1.07526
    53	0.969213
    54	0.99556
    55	1.10807
    56	0.956418
    57	0.92253
    58	0.925174
    59	1.07018
    60	1.11664
    61	1.07168
    62	0.936238
    63	1.07968
    64	1.09025
    65	1.03818
    66	0.926858
    67	1.05146
    68	1.10854
    69	0.918181
    70	1.11317
    71	0.916311
    72	1.06317
    73	0.991019
    74	1.10747
    75	1.0709
    76	0.932834
    77	0.993209
    78	1.11145
    79	0.908417
    80	1.04965
    81	1.03642
    82	1.09336
    83	1.07766
    84	1.04129
    85	1.08357
    86	0.958488
    87	1.06233
    88	0.987123
    89	0.945795
    90	1.06256
    91	1.01418
    92	0.930443
    93	0.996477
    94	1.04605
    95	1.01838
    96	1.02479
    97	1.07308
    98	1.0804
    99	0.972498
   100	1.0484
   101	0.955896
   102	1.09879
   103	0.959719
   104	1.09562
   105	1.05555
   106	0.968871
   107	0.969105
   108	1.05089
   109	1.1098
   110	0.97215
   111	0.943803
   112	0.970632
   113	0.936814
   114	0.928901
   115	1.05825
   116	0.977365
   117	0.95364
   118	0.940017
   119	1.04873
   120	1.0701
   121	1.03364
   122	0.92851
   123	1.10771
   124	1.08068
   125	0.999997
   126	0.931903
   127	0.933126
   128	0.933122
   129	1.0221
   130	1.10876
   131	0.968055
   132	1.08464
   133	1.01427
   134	1.1065
   135	1.0181
   136	0.988424
   137	0.953209
   138	0.960406
   139	1.05621
   140	0.967826
   141	0.976706
   142	1.00376
   143	0.942316
   144	0.972388
   145	0.99124
   146	0.963494
   147	1.00677
   148	1.02094
   149	0.963176
   150	1.0334
   151	0.923045
   152	1.0866
   153	0.983486
   154	0.948208
   155	1.01027
   156	1.03299
   157	0.95157
   158	1.00041
   159	0.910795
   160	0.952713
   161	0.992541
   162	0.951648
   163	1.03735
   164	0.945794
   165	1.01679
   166	1.04129
   167	1.06588
   168	0.943769
   169	1.04994
   170	1.10471
   171	0.930601
   172	0.914251
   173	1.04272
   174	0.979403
   175	1.03918
   176	1.0215
   177	1.01111
   178	0.947362
   179	0.994385
   180	1.03372
   181	1.04981
   182	0.929669
   183	1.01521
   184	0.956814
   185	0.950026
   186	0.944992
   187	0.98303
   188	1.05152
   189	1.00258
   190	1.01851
   191	1.02152
   192	0.92636
   193	0.97965
   194	0.909282
   195	0.991661
   196	0.979497
   197	1.03873
   198	0.945242
   199	1.0542
   200	1.10552
   201	1.01083
   202	0.912634
   203	0.917527
   204	1.08309
   205	1.00725
   206	0.932358
   207	0.938648
   208	1.02749
   209	0.961811
   210	1.07189
   211	1.0502
   212	0.913895
   213	0.93328
   214	0.965502
   215	0.978975
   216	1.02538
   217	0.902499
   218	1.0382
   219	1.03961
   220	0.952817
   221	1.02159
   222	0.991595
   223	0.943576
   224	1.02075
   225	0.907427
   226	0.94091
   227	1.06605
   228	1.08932
   229	0.984081
   230	1.03405
   231	0.939288
   232	1.06136
   233	1.02667
   234	1.06517
   235	0.901583
   236	1.07089
   237	1.08991
   238	1.1204
   239	0.951537
   240	0.952674
   241	1.09903
   242	1.07036
   243	1.08767
   244	0.926385
   245	0.932911
   246	1.00846
   247	0.973281
   248	1.03575
   249	1.0023
   250	0.97189
   251	1.01398
   252	1.097
   253	0.987364
   254	1.06841
   255	0.938262
   256	1.05883
   257	0.935695
   258	1.09127
   259	1.07959
   260	1.04273
   261	1.06465
   262	1.01007
   263	1.04741
   264	0.976412
   265	0.919832
   266	1.08788
   267	1.01556
   268	0.924924
   269	0.971991
   270	0.935538
   271	1.05279
   272	0.950263
   273	0.926014
   274	0.928141
   275	0.935776
   276	0.993554
   277	0.976073
   278	1.03792
   279	1.05969
   280	1.05844
   281	1.07674
   282	1.10413
   283	0.985454
   284	1.03012
   285	0.903836
   286	1.04788
   287	0.932043
   288	1.00545
   289	0.969965
   290	0.947069
   291	1.01242
   292	0.945408
   293	1.0568
   294	0.942319
   295	0.981651
   296	1.0561
   297	0.913744
   298	1.01613
   299	1.04324
   300	1.02174
   301	1.06984
   302	0.99662
   303	0.92755
   304	0.954152
   305	0.955168
   306	0.997861
   307	1.07475
   308	0.95861
   309	1.04353
   310	1.05843
   311	0.947855
   312	1.0721
   313	1.00659
   314	0.952365
   315	0.936575
   316	1.1005
   317	0.964416
   318	1.09266
   319	0.937513
   320	0.925982
   321	1.00792
   322	0.968272
   323	0.926583
   324	0.952916
   325	0.948743
   326	1.00485
   327	1.01336
   328	1.02805
   329	1.0567
   330	1.0229
   331	0.983434
   332	0.983945
   333	0.913332
   334	1.01509
   335	0.954581
   336	0.951587
   337	1.08081
   338	1.07375
   339	0.923606
   340	0.954852
   341	1.03468
   342	1.05671
   343	0.951411
   344	0.945255
   345	1.03804
   346	1.04999
   347	0.972466
   348	1.08682
   349	1.01724
   350	0.994657
   351	1.0922
   352	0.920344
   353	0.951052
   354	0.941746
   355	0.971106
   356	0.995868
   357	0.91843
   358	0.936704
   359	0.990479
   360	0.90839
   361	0.922235
   362	0.928014
   363	1.05308
   364	1.02213
   365	1.09205
   366	0.929999
   367	0.982223
   368	1.04518
   369	0.974822
   370	1.09252
   371	1.04999
   372	1.02255
   373	1.07423
   374	1.07735
   375	0.976962
   376	1.07837
   377	1.08997
   378	0.989193
   379	1.05844
   380	0.949098
   381	1.05021
   382	0.932249
   383	1.00461
   384	1.09626
   385	0.9741
   386	0.918081
   387	1.04662
   388	1.02215
   389	0.978058
   390	0.945136
   391	0.991477
   392	1.01973
   393	0.965766
   394	1.05224
   395	0.993586
   396	1.00047
   397	1.10473
   398	1.03252
   399	1.02829
   400	1.01432
   401	0.983759
   402	1.05052
   403	0.990318
   404	1.11439
   405	0.927559
   406	1.07474
   407	1.10788
   408	1.0982
   409	0.98086
   410	1.04122
   411	0.905595
   412	1.04125
   413	1.07021
   414	1.0984
   415	1.03317
   416	0.959099
   417	1.01069
   418	1.0496
   419	1.07355
   420	0.932368
   421	1.05592
   422	0.914806
   423	1.01828
   424	1.00516
   425	0.964093
   426	1.09359
   427	1.04078
   428	1.04345
   429	0.977589
   430	1.10837
   431	0.936464
   432	0.980844
   433	0.927324
   434	1.09656
   435	0.941206
   436	1.02002
   437	1.10925
   438	0.936026
   439	1.05001
   440	1.01784
   441	1.02969
   442	1.02535
   443	0.917373
   444	0.931904
   445	1.0805
   446	1.04004
   447	0.980613
   448	0.96504
   449	1.0294
   450	1.03797
   451	0.955408
   452	0.936018
   453	0.988773
   454	1.05448
   455	0.967907
   456	0.97092
   457	1.03734
   458	0.946555
   459	0.951347
   460	1.00244
   461	1.00094
   462	1.02765
   463	1.10798
   464	0.938193
   465	0.968029
   466	1.01695
   467	1.02713
   468	1.10885
   469	0.948771
   470	0.947356
   471	1.10581
   472	1.08373
   473	1.05582
   474	1.02637
   475	0.933753
   476	0.987184
   477	1.11045
   478	0.987173
   479	0.970324
   480	1.08729
   481	0.918009
   482	1.03542
   483	1.02141
   484	1.07279
   485	0.928232
   486	1.09584
   487	1.05157
   488	0.959444
   489	1.07429
   490	1.08412
   491	0.924905
   492	1.10445
   493	1.01453
   494	0.981327
   495	0.979162
   496	0.972244
   497	0.97924
   498	0.958927
   499	1.03435
   500	0.986502

Measurement: cap
  step	capval
     1	9.0025e-006
     2	9.70058e-006
     3	1.0421e-005
     4	9.29463e-006
     5	9.01782e-006
     6	9.33247e-006
     7	1.05666e-005
     8	1.09118e-005
     9	1.07245e-005
    10	1.0223e-005
    11	9.75173e-006
    12	9.55177e-006
    13	9.96988e-006
    14	1.04889e-005
    15	1.01448e-005
    16	1.00342e-005
    17	9.98379e-006
    18	9.28315e-006
    19	1.09332e-005
    20	9.3827e-006
    21	1.0464e-005
    22	1.04438e-005
    23	1.0034e-005
    24	1.00991e-005
    25	9.9122e-006
    26	9.39198e-006
    27	9.05493e-006
    28	1.06861e-005
    29	9.21986e-006
    30	9.28053e-006
    31	9.50545e-006
    32	9.42116e-006
    33	1.05044e-005
    34	1.03924e-005
    35	1.02574e-005
    36	9.37989e-006
    37	9.19501e-006
    38	1.07892e-005
    39	1.02561e-005
    40	1.07096e-005
    41	9.36854e-006
    42	1.02094e-005
    43	1.04815e-005
    44	1.01521e-005
    45	1.03356e-005
    46	9.21711e-006
    47	9.1587e-006
    48	9.81796e-006
    49	1.0476e-005
    50	9.60012e-006
    51	1.02193e-005
    52	9.2096e-006
    53	1.03256e-005
    54	1.00185e-005
    55	9.01178e-006
    56	1.04947e-005
    57	1.09114e-005
    58	1.09034e-005
    59	9.26325e-006
    60	9.02936e-006
    61	9.33784e-006
    62	1.06048e-005
    63	9.28962e-006
    64	9.13233e-006
    65	9.6227e-006
    66	1.07905e-005
    67	9.45698e-006
    68	9.10761e-006
    69	1.07831e-005
    70	9.09418e-006
    71	1.08923e-005
    72	9.51833e-006
    73	1.01711e-005
    74	9.01434e-006
    75	9.44465e-006
    76	1.07102e-005
    77	1.00603e-005
    78	9.06214e-006
    79	1.08958e-005
    80	9.58449e-006
    81	9.48109e-006
    82	9.16022e-006
    83	9.42128e-006
    84	9.62227e-006
    85	9.30702e-006
    86	1.02911e-005
    87	9.30152e-006
    88	1.01571e-005
    89	1.05905e-005
    90	9.39534e-006
    91	9.8826e-006
    92	1.08989e-005
    93	1.01489e-005
    94	9.5204e-006
    95	9.78713e-006
    96	9.70711e-006
    97	9.40034e-006
    98	9.21876e-006
    99	1.03753e-005
   100	9.61446e-006
   101	1.04499e-005
   102	9.1966e-006
   103	1.04557e-005
   104	9.09992e-006
   105	9.42494e-006
   106	1.02119e-005
   107	1.02466e-005
   108	9.61281e-006
   109	9.06207e-006
   110	1.02232e-005
   111	1.05864e-005
   112	1.03455e-005
   113	1.0542e-005
   114	1.07879e-005
   115	9.39473e-006
   116	1.02574e-005
   117	1.05762e-005
   118	1.07107e-005
   119	9.38374e-006
   120	9.34828e-006
   121	9.74245e-006
   122	1.09421e-005
   123	9.01849e-006
   124	9.18134e-006
   125	1.0071e-005
   126	1.07267e-005
   127	1.07284e-005
   128	1.06573e-005
   129	9.88034e-006
   130	9.00171e-006
   131	1.03678e-005
   132	9.03711e-006
   133	9.86343e-006
   134	9.04566e-006
   135	9.92685e-006
   136	1.0216e-005
   137	1.04233e-005
   138	1.03763e-005
   139	9.49287e-006
   140	1.02467e-005
   141	1.02589e-005
   142	9.89944e-006
   143	1.0461e-005
   144	1.01127e-005
   145	1.02018e-005
   146	1.03072e-005
   147	9.99509e-006
   148	9.75179e-006
   149	1.03012e-005
   150	9.72652e-006
   151	1.07389e-005
   152	9.32972e-006
   153	1.01602e-005
   154	1.06177e-005
   155	9.77651e-006
   156	9.76345e-006
   157	1.05221e-005
   158	9.9227e-006
   159	1.08441e-005
   160	1.04944e-005
   161	1.01057e-005
   162	1.04635e-005
   163	9.78988e-006
   164	1.05124e-005
   165	9.69173e-006
   166	9.59059e-006
   167	9.28602e-006
   168	1.06284e-005
   169	9.45875e-006
   170	9.08179e-006
   171	1.07889e-005
   172	1.09987e-005
   173	9.56874e-006
   174	1.02901e-005
   175	9.75014e-006
   176	9.89773e-006
   177	1.00034e-005
   178	1.05423e-005
   179	1.00779e-005
   180	9.74209e-006
   181	9.64986e-006
   182	1.07879e-005
   183	9.84732e-006
   184	1.03633e-005
   185	1.06368e-005
   186	1.04966e-005
   187	1.02619e-005
   188	9.53188e-006
   189	9.92013e-006
   190	9.80776e-006
   191	9.86435e-006
   192	1.07304e-005
   193	1.01192e-005
   194	1.09282e-005
   195	9.99716e-006
   196	1.01769e-005
   197	9.6028e-006
   198	1.07807e-005
   199	9.51387e-006
   200	9.09857e-006
   201	9.82455e-006
   202	1.09026e-005
   203	1.07402e-005
   204	9.25526e-006
   205	9.90957e-006
   206	1.05944e-005
   207	1.06843e-005
   208	9.71242e-006
   209	1.04898e-005
   210	9.31764e-006
   211	9.49843e-006
   212	1.0865e-005
   213	1.07903e-005
   214	1.03439e-005
   215	1.01896e-005
   216	9.71065e-006
   217	1.09651e-005
   218	9.65291e-006
   219	9.58034e-006
   220	1.03734e-005
   221	9.68313e-006
   222	1.00811e-005
   223	1.05199e-005
   224	9.87674e-006
   225	1.09641e-005
   226	1.07201e-005
   227	9.34492e-006
   228	9.16736e-006
   229	1.02646e-005
   230	9.56502e-006
   231	1.05908e-005
   232	9.3885e-006
   233	9.81362e-006
   234	9.41298e-006
   235	1.09521e-005
   236	9.40333e-006
   237	9.19922e-006
   238	9.01154e-006
   239	1.04938e-005
   240	1.05685e-005
   241	9.20386e-006
   242	9.45729e-006
   243	9.11231e-006
   244	1.07573e-005
   245	1.08904e-005
   246	9.8439e-006
   247	1.02463e-005
   248	9.63356e-006
   249	9.93814e-006
   250	1.01609e-005
   251	9.83718e-006
   252	9.17469e-006
   253	1.0229e-005
   254	9.44191e-006
   255	1.05411e-005
   256	9.44533e-006
   257	1.06832e-005
   258	9.16346e-006
   259	9.18879e-006
   260	9.62062e-006
   261	9.34492e-006
   262	9.89291e-006
   263	9.49721e-006
   264	1.02598e-005
   265	1.07189e-005
   266	9.18708e-006
   267	1.00302e-005
   268	1.08296e-005
   269	1.03559e-005
   270	1.07409e-005
   271	9.40925e-006
   272	1.04776e-005
   273	1.06887e-005
   274	1.07855e-005
   275	1.07751e-005
   276	1.00557e-005
   277	1.01181e-005
   278	9.73696e-006
   279	9.49763e-006
   280	9.39369e-006
   281	9.34889e-006
   282	9.09461e-006
   283	1.01379e-005
   284	9.82253e-006
   285	1.09759e-005
   286	9.5895e-006
   287	1.06584e-005
   288	9.94784e-006
   289	1.03194e-005
   290	1.05826e-005
   291	9.88418e-006
   292	1.06733e-005
   293	9.51192e-006
   294	1.07136e-005
   295	1.02137e-005
   296	9.47414e-006
   297	1.08334e-005
   298	9.79916e-006
   299	9.57991e-006
   300	9.92068e-006
   301	9.29737e-006
   302	9.98148e-006
   303	1.06612e-005
   304	1.04514e-005
   305	1.04872e-005
   306	1.01264e-005
   307	9.34193e-006
   308	1.03968e-005
   309	9.64138e-006
   310	9.47243e-006
   311	1.04243e-005
   312	9.25275e-006
   313	9.99033e-006
   314	1.05286e-005
   315	1.05881e-005
   316	9.20356e-006
   317	1.03415e-005
   318	9.22291e-006
   319	1.06024e-005
   320	1.0896e-005
   321	9.91586e-006
   322	1.03015e-005
   323	1.07866e-005
   324	1.04621e-005
   325	1.04336e-005
   326	9.97617e-006
   327	9.72066e-006
   328	9.79336e-006
   329	9.44996e-006
   330	9.82339e-006
   331	1.02068e-005
   332	1.00633e-005
   333	1.09417e-005
   334	9.93258e-006
   335	1.04798e-005
   336	1.05018e-005
   337	9.14222e-006
   338	9.30439e-006
   339	1.06686e-005
   340	1.04175e-005
   341	9.62825e-006
   342	9.49953e-006
   343	1.05066e-005
   344	1.04725e-005
   345	9.65535e-006
   346	9.5367e-006
   347	1.0293e-005
   348	9.20454e-006
   349	9.74398e-006
   350	1.00415e-005
   351	9.10346e-006
   352	1.08015e-005
   353	1.05154e-005
   354	1.06445e-005
   355	1.02514e-005
   356	1.01239e-005
   357	1.07778e-005
   358	1.063e-005
   359	9.99857e-006
   360	1.09791e-005
   361	1.08618e-005
   362	1.0834e-005
   363	9.51613e-006
   364	9.64431e-006
   365	9.20679e-006
   366	1.07935e-005
   367	1.00959e-005
   368	9.64028e-006
   369	1.0197e-005
   370	9.14356e-006
   371	9.61049e-006
   372	9.75448e-006
   373	9.24671e-006
   374	9.26734e-006
   375	1.02252e-005
   376	9.31458e-006
   377	9.13697e-006
   378	1.01934e-005
   379	9.35823e-006
   380	1.07123e-005
   381	9.60121e-006
   382	1.07444e-005
   383	9.89206e-006
   384	9.17597e-006
   385	1.0161e-005
   386	1.09359e-005
   387	9.63411e-006
   388	9.79519e-006
   389	1.02124e-005
   390	1.06242e-005
   391	1.00279e-005
   392	9.79305e-006
   393	1.03616e-005
   394	9.40529e-006
   395	1.01136e-005
   396	1.00504e-005
   397	9.01068e-006
   398	9.76321e-006
   399	9.73965e-006
   400	9.87881e-006
   401	1.01943e-005
   402	9.46815e-006
   403	1.0023e-005
   404	9.04431e-006
   405	1.06647e-005
   406	9.22523e-006
   407	9.06037e-006
   408	9.04083e-006
   409	1.02282e-005
   410	9.57283e-006
   411	1.08893e-005
   412	9.6133e-006
   413	9.33125e-006
   414	9.03088e-006
   415	9.69869e-006
   416	1.05314e-005
   417	9.89578e-006
   418	9.49971e-006
   419	9.29023e-006
   420	1.06128e-005
   421	9.40565e-006
   422	1.0908e-005
   423	9.78903e-006
   424	9.99698e-006
   425	1.02425e-005
   426	9.11139e-006
   427	9.60457e-006
   428	9.66811e-006
   429	1.02713e-005
   430	9.0412e-006
   431	1.06417e-005
   432	1.02289e-005
   433	1.06772e-005
   434	9.10236e-006
   435	1.07617e-005
   436	9.92392e-006
   437	9.05011e-006
   438	1.08224e-005
   439	9.49269e-006
   440	9.91293e-006
   441	9.72201e-006
   442	9.74917e-006
   443	1.09916e-005
   444	1.07945e-005
   445	9.352e-006
   446	9.60024e-006
   447	1.02538e-005
   448	1.03793e-005
   449	9.76254e-006
   450	9.66036e-006
   451	1.05752e-005
   452	1.07136e-005
   453	1.00253e-005
   454	9.43068e-006
   455	1.02626e-005
   456	1.03526e-005
   457	9.79733e-006
   458	1.05267e-005
   459	1.05945e-005
   460	9.88437e-006
   461	9.9067e-006
   462	9.82662e-006
   463	9.03247e-006
   464	1.07024e-005
   465	1.01885e-005
   466	9.87051e-006
   467	9.68184e-006
   468	9.02985e-006
   469	1.0571e-005
   470	1.05079e-005
   471	9.00256e-006
   472	9.19251e-006
   473	9.41127e-006
   474	9.79672e-006
   475	1.07705e-005
   476	1.01424e-005
   477	9.08142e-006
   478	1.01515e-005
   479	1.02879e-005
   480	9.23127e-006
   481	1.08043e-005
   482	9.74203e-006
   483	9.84457e-006
   484	9.23389e-006
   485	1.07394e-005
   486	9.14142e-006
   487	9.42897e-006
   488	1.06217e-005
   489	9.31922e-006
   490	9.22504e-006
   491	1.0689e-005
   492	9.08576e-006
   493	9.83468e-006
   494	1.03186e-005
   495	1.01425e-005
   496	1.0311e-005
   497	1.02714e-005
   498	1.05967e-005
   499	9.63912e-006
   500	9.99893e-006


Date: Wed Sep 13 12:34:39 2017
Total elapsed time: 17.391 seconds.

tnom = 27
temp = 27
method = modified trap
totiter = 6473
traniter = 6058
tranpoints = 2243
accept = 1911
rejected = 330
matrix size = 8
fillins = 1
solver = Normal
Matrix Compiler1: 398 bytes object code size  0.2/0.2/[0.2]
Matrix Compiler2: off  [0.2]/0.2/0.2

