Circuit: * Z:\home\eric\git\eclectronics-project-1\LTspice\Draft2.asc

Direct Newton iteration failed to find .op point.  (Use ".option noopiter" to skip.)
Starting Gmin stepping
Gmin = 10
Gmin = 1.07374
Gmin = 0.115292
Gmin = 0.0123794
Gmin = 0.00132923
Gmin = 0.000142725
Gmin = 1.5325e-005
Gmin = 1.6455e-006
Gmin = 1.76685e-007
Gmin = 1.89714e-008
Gmin = 2.03704e-009
Gmin = 2.18725e-010
Gmin = 2.34854e-011
Gmin = 2.52173e-012
Gmin = 2.70769e-013
Gmin = 0
Gmin stepping succeeded in finding the operating point.

Changing Tseed to 1e-008
Changing Tseed to 1e-010

period=0.896349 FROM 1.8505 TO 2.74685
frequency: 1/period=1.11564
cap: capval=9.0025e-006


Date: Wed Sep 13 17:31:48 2017
Total elapsed time: 0.098 seconds.

tnom = 27
temp = 27
method = modified trap
totiter = 7324
traniter = 6900
tranpoints = 2490
accept = 2093
rejected = 395
matrix size = 8
fillins = 1
solver = Normal
Matrix Compiler1: 398 bytes object code size  0.3/0.2/[0.2]
Matrix Compiler2: 682 bytes object code size  0.2/0.2/[0.2]

